Version 4
SHEET 1 1544 680
WIRE 944 -192 816 -192
WIRE 944 -160 944 -192
WIRE 944 -48 944 -80
WIRE 944 -48 896 -48
WIRE 976 -48 944 -48
WIRE 1264 -16 1216 -16
WIRE 1264 0 1264 -16
WIRE 160 32 112 32
WIRE 288 32 240 32
WIRE 112 80 112 32
WIRE 112 80 16 80
WIRE 288 80 288 32
WIRE 368 80 288 80
WIRE 544 80 368 80
WIRE 704 80 624 80
WIRE 896 80 896 32
WIRE 896 80 768 80
WIRE 976 80 976 32
WIRE 976 80 896 80
WIRE 1104 80 976 80
WIRE 16 96 16 80
WIRE 1264 96 1264 80
WIRE 368 112 368 80
WIRE 1216 112 1216 -16
WIRE 112 128 112 80
WIRE 176 128 112 128
WIRE 288 128 288 80
WIRE 288 128 240 128
WIRE 1104 128 1104 80
WIRE 1184 128 1104 128
WIRE 544 160 544 80
WIRE 624 160 624 80
WIRE 1184 160 1120 160
WIRE 1120 176 1120 160
WIRE 368 192 368 176
WIRE 1472 208 1360 208
WIRE 16 224 16 176
WIRE 1184 256 1120 256
WIRE 1184 288 1104 288
WIRE 1296 288 1296 272
WIRE 16 320 16 304
WIRE 368 320 368 272
WIRE 368 320 16 320
WIRE 544 320 544 240
WIRE 544 320 368 320
WIRE 624 320 624 240
WIRE 704 320 624 320
WIRE 896 320 768 320
WIRE 992 320 896 320
WIRE 1104 320 1104 288
WIRE 1104 320 992 320
WIRE 1216 320 1216 304
WIRE 896 352 896 320
WIRE 992 352 992 320
WIRE 1216 416 1216 400
WIRE 896 448 896 432
WIRE 960 448 896 448
WIRE 992 448 992 432
WIRE 992 448 960 448
WIRE 960 480 960 448
WIRE 960 576 960 560
FLAG 1264 96 0
FLAG 1216 416 0
FLAG 1296 288 0
FLAG 1472 208 Vout
FLAG 16 320 0
FLAG 816 -192 0
FLAG 960 576 0
SYMBOL voltage 16 208 R0
WINDOW 123 0 0 Left 0
WINDOW 39 0 0 Left 0
SYMATTR InstName V1
SYMATTR Value AC 1
SYMBOL ind 256 16 R90
WINDOW 0 5 56 VBottom 2
WINDOW 3 32 56 VTop 2
SYMATTR InstName L1
SYMATTR Value 36u
SYMATTR SpiceLine Rser=500m
SYMBOL cap 240 112 R90
WINDOW 0 0 32 VBottom 2
WINDOW 3 32 32 VTop 2
SYMATTR InstName C1
SYMATTR Value 1u
SYMBOL cap 384 176 R180
WINDOW 0 24 56 Left 2
WINDOW 3 24 8 Left 2
SYMATTR InstName C2
SYMATTR Value .2u
SYMBOL ind 352 176 R0
SYMATTR InstName L2
SYMATTR Value 180u
SYMATTR SpiceLine Rser=500m
SYMBOL ind2 528 144 R0
SYMATTR InstName L3
SYMATTR Value 1
SYMATTR Type ind
SYMBOL ind2 608 144 R0
SYMATTR InstName L4
SYMATTR Value 16
SYMATTR Type ind
SYMBOL cap 768 64 R90
WINDOW 0 0 32 VBottom 2
WINDOW 3 32 32 VTop 2
SYMATTR InstName C3
SYMATTR Value 20n
SYMBOL cap 768 304 R90
WINDOW 0 0 32 VBottom 2
WINDOW 3 32 32 VTop 2
SYMATTR InstName C4
SYMATTR Value 20n
SYMBOL res 880 336 R0
SYMATTR InstName R1
SYMATTR Value 10k
SYMBOL res 880 -64 R0
SYMATTR InstName R2
SYMATTR Value 10k
SYMBOL ind 960 -64 R0
SYMATTR InstName L5
SYMATTR Value 3m
SYMBOL ind 976 336 R0
SYMATTR InstName L6
SYMATTR Value 3m
SYMBOL res 944 464 R0
SYMATTR InstName R3
SYMATTR Value 100
SYMBOL OpAmps\\AD8429 1216 208 R0
SYMATTR InstName U1
SYMBOL res 1104 160 R0
SYMATTR InstName R4
SYMATTR Value 50
SYMBOL voltage 1264 -16 R0
WINDOW 123 0 0 Left 0
WINDOW 39 0 0 Left 0
SYMATTR InstName V2
SYMATTR Value 5
SYMBOL voltage 1216 416 R180
WINDOW 0 24 96 Left 2
WINDOW 3 24 16 Left 2
WINDOW 123 0 0 Left 0
WINDOW 39 0 0 Left 0
SYMATTR InstName V3
SYMATTR Value 5
SYMBOL res 928 -176 R0
SYMATTR InstName R5
SYMATTR Value 100
SYMBOL ind 0 80 R0
SYMATTR InstName L7
SYMATTR Value 31u
SYMATTR SpiceLine Rser=1.9
TEXT 272 392 Left 2 !.noise V(Vout) V1 oct 100 10k 150k
TEXT 496 -16 Left 2 !K L3 L4 1
TEXT 328 504 Left 2 !;ac oct 100 10k 150k
